Loads_R.txt
New Load.LOAD1 Phases=1 Bus1=2.1 kV=0.230 kW=2.76 PF=1 spectrum=kona_12A
New Load.LOAD2 Phases=1 Bus1=7.1 kV=0.230 kW=4.14 PF=1 spectrum=leaf_18A
New Load.LOAD3 Phases=1 Bus1=7.2 kV=0.230 kW=5.52 PF=1 spectrum=kona_24A
New Load.LOAD4 Phases=1 Bus1=12.1 kV=0.230 kW=5.52 PF=1 spectrum=zoe_1ph_24A
New Load.LOAD5 Phases=1 Bus1=14.1 kV=0.230 kW=5.52 PF=1 spectrum=kona_24A
New Load.LOAD6 Phases=1 Bus1=16.2 kV=0.230 kW=1.38 PF=1 spectrum=bmw_1ph_6A
New Load.LOAD7 Phases=1 Bus1=20.2 kV=0.230 kW=1.38 PF=1 spectrum=van_6A
New Load.LOAD8 Phases=1 Bus1=9.3 kV=0.230 kW=5.52 PF=1 spectrum=van_24A
